# Packages
 &PACKAGES
#useKPP=.true.,
 useOBCS=.FALSE.,
 useMNC=.FALSE.,
 useShelfIce=.true.,
 useStreamIce=.FALSE.,
#useSEAICE=.true.,
 useDiagnostics = .true.,
 &
