# *******************
# Calendar Parameters
# *******************
 &CAL_NML
 TheCalendar='model',
 startDate_1=20100101,
# startDate_2=120000,
 startDate_2=000000,
 calendarDumps = .TRUE.,
 &